test/TEST190523/v_h29.csv
Bus, BasekV, Node1, Magnitude1, Angle1, pu1, Node2, Magnitude2, Angle2, pu2, Node3, Magnitude3, Angle3, pu3
"SOURCEBUS", 69, 1,    41827.4,   -0.2,      1.05, 2,    41813.1, -120.2,    1.0496, 3,    41791.2,  119.8,     1.049
"BUSMVMAI1", 12.8, 1,       7759,  -30.6,    1.0499, 2,    7760.99, -150.7,    1.0502, 3,    7745.33,   89.1,    1.0481
"BUSMVMAI136", 12.505, 1,    7758.99,  -30.6,    1.0747, 2,    7760.93, -150.7,    1.0749, 3,    7745.28,   89.1,    1.0728
"BUSMVMAI3", 12.505, 1,    7750.72,  -31.1,    1.0735, 2,    7713.39, -151.2,    1.0683, 3,    7702.33,   88.2,    1.0668
"BUSMVMAI2", 12.505, 1,     7750.7,  -31.1,    1.0735, 2,    7713.26, -151.2,    1.0683, 3,    7702.22,   88.2,    1.0668
"BUSMVMAI4", 12.505, 1,    7750.48,  -31.1,    1.0735, 2,    7711.92, -151.2,    1.0681, 3,    7701.03,   88.2,    1.0666
"BUSMVMAI46", 12.505, 1,    7750.73,  -31.1,    1.0735, 2,    7713.44, -151.2,    1.0683, 3,    7702.38,   88.2,    1.0668
"BUSMVMAI5", 12.505, 1,    7750.01,  -31.1,    1.0734, 2,    7710.43, -151.2,    1.0679, 3,    7699.67,   88.2,    1.0664
"BUSMVMAI862", 12.505, 1,    7750.47,  -31.1,    1.0735, 0, 0, 0, 0, 0, 0, 0, 0
"BUSMVMAI6", 12.505, 1,    7749.92,  -31.1,    1.0734, 2,    7710.16, -151.2,    1.0679, 3,    7699.43,   88.2,    1.0664
"BUSMVMAI859", 12.505, 3,    7699.64,   88.2,    1.0664, 0, 0, 0, 0, 0, 0, 0, 0
"BUSMVMAI860", 12.505, 3,    7699.67,   88.2,    1.0664, 0, 0, 0, 0, 0, 0, 0, 0
"BUSMVMAI7", 12.505, 1,    7749.28,  -31.1,    1.0733, 2,    7708.96, -151.2,    1.0677, 3,    7698.23,   88.2,    1.0662
"BUSMVMAI8", 12.505, 1,    7749.47,  -31.1,    1.0733, 2,    7707.12, -151.2,    1.0675, 3,    7697.48,   88.2,    1.0661
"BUSMVMAI9", 12.505, 1,    7749.28,  -31.1,    1.0733, 2,    7708.96, -151.2,    1.0677, 3,    7698.22,   88.2,    1.0662
"BUSMVMAI10", 12.505, 1,    7748.82,  -31.1,    1.0732, 2,    7708.94, -151.2,    1.0677, 3,    7697.85,   88.2,    1.0662
"BUSMVMAI56", 12.505, 1,    7749.05,  -31.1,    1.0733, 2,    7708.95, -151.2,    1.0677, 3,    7698.04,   88.2,    1.0662
"BUSMVMAI861", 12.505, 3,    7699.57,   88.2,    1.0664, 0, 0, 0, 0, 0, 0, 0, 0
"BUSMVMAI12", 12.505, 1,    7749.63,  -31.1,    1.0734, 2,    7705.62, -151.2,    1.0673, 3,    7696.88,   88.1,     1.066
"BUSMVMAI51", 12.505, 1,    7749.47,  -31.1,    1.0733, 2,    7707.12, -151.2,    1.0675, 3,    7697.48,   88.2,    1.0661
"BUSMVMAI2171", 12.505, 1,    7749.46,  -31.1,    1.0733, 0, 0, 0, 0, 0, 0, 0, 0
"BUSMVMAI863", 12.505, 3,    7699.51,   88.2,    1.0664, 0, 0, 0, 0, 0, 0, 0, 0
"BUSMVMAI2165", 12.505, 3,    7698.22,   88.2,    1.0662, 0, 0, 0, 0, 0, 0, 0, 0
"BUSMVMAI694", 12.505, 1,    7749.28,  -31.1,    1.0733, 2,    7708.96, -151.2,    1.0677, 3,    7698.22,   88.2,    1.0662
"BUSMVMAI122", 12.505, 1,     7748.8,  -31.1,    1.0732, 2,    7708.94, -151.2,    1.0677, 3,    7697.83,   88.2,    1.0662
"BUSMVMAI11", 12.505, 1,    7749.63,  -31.1,    1.0734, 2,    7705.62, -151.2,    1.0673, 3,    7696.88,   88.1,    1.0661
"BUSMVMAI13", 12.505, 1,    7749.62,  -31.1,    1.0734, 2,    7705.59, -151.2,    1.0673, 3,    7696.89,   88.1,    1.0661
"BUSMVMAI18", 12.505, 1,    7749.69,  -31.1,    1.0734, 2,    7705.07, -151.2,    1.0672, 3,    7696.65,   88.1,     1.066
"BUSMVMAI14", 12.505, 1,    7749.62,  -31.1,    1.0734, 2,    7705.55, -151.2,    1.0673, 3,     7696.9,   88.1,    1.0661
"BUSMVMAI15", 12.505, 1,    7749.61,  -31.1,    1.0734, 2,     7705.5, -151.2,    1.0672, 3,    7696.91,   88.1,    1.0661
"BUSMVMAI16", 12.505, 1,    7749.62,  -31.1,    1.0734, 2,    7705.49, -151.2,    1.0672, 3,     7696.9,   88.1,    1.0661
"BUSMVMAI2166", 12.505, 2,    7705.49, -151.2,    1.0672, 0, 0, 0, 0, 0, 0, 0, 0
"BUSMVMAI2172", 12.505, 1,    7750.46,  -31.1,    1.0735, 0, 0, 0, 0, 0, 0, 0, 0
"BUSMVMAI864", 12.505, 3,    7699.47,   88.2,    1.0664, 0, 0, 0, 0, 0, 0, 0, 0
"BUSMVMAI865", 12.505, 3,     7699.4,   88.2,    1.0664, 0, 0, 0, 0, 0, 0, 0, 0
"BUSMVMAI17", 12.505, 1,    7749.62,  -31.1,    1.0734, 2,    7705.49, -151.2,    1.0672, 3,     7696.9,   88.1,    1.0661
"BUSMVMAI695", 12.505, 1,    7749.62,  -31.1,    1.0734, 2,    7705.49, -151.2,    1.0672, 3,     7696.9,   88.1,    1.0661
"BUSMVMAI866", 12.505, 3,     7699.4,   88.2,    1.0664, 0, 0, 0, 0, 0, 0, 0, 0
"BUSMVMAI2176", 12.505, 3,     7699.4,   88.2,    1.0664, 0, 0, 0, 0, 0, 0, 0, 0
"BUSMVMAI2177", 12.505, 3,    7699.39,   88.2,    1.0664, 0, 0, 0, 0, 0, 0, 0, 0
"BUSMVMAI2178", 12.505, 3,    7699.37,   88.2,    1.0664, 0, 0, 0, 0, 0, 0, 0, 0
"BUSMVMAI19", 12.505, 1,    7749.82,  -31.1,    1.0734, 2,    7704.08, -151.3,     1.067, 3,    7696.23,   88.1,     1.066
"BUSMVMAI20", 12.505, 1,    7749.99,  -31.1,    1.0734, 2,    7702.68, -151.3,    1.0669, 3,    7695.65,   88.1,    1.0659
"BUSMVMAI53", 12.505, 1,    7749.82,  -31.1,    1.0734, 2,    7704.08, -151.3,     1.067, 3,    7696.23,   88.1,     1.066
"BUSMVMAI21", 12.505, 1,    7750.18,  -31.1,    1.0734, 2,     7701.2, -151.3,    1.0666, 3,    7695.04,   88.1,    1.0658
"BUSMVMAI22", 12.505, 1,    7750.39,  -31.1,    1.0735, 2,    7699.48, -151.3,    1.0664, 3,    7694.33,   88.1,    1.0657
"BUSMVMAI23", 12.505, 1,    7750.18,  -31.1,    1.0734, 2,    7701.21, -151.3,    1.0666, 3,    7695.03,   88.1,    1.0658
"BUSMVMAI25", 12.505, 1,    7750.61,  -31.2,    1.0735, 2,     7697.7, -151.3,    1.0662, 3,    7693.61,   88.0,    1.0656
"BUSMVMAI52", 12.505, 1,    7750.39,  -31.1,    1.0735, 2,    7699.48, -151.3,    1.0664, 3,    7694.33,   88.1,    1.0657
"BUSMVMAI54", 12.505, 1,    7750.39,  -31.1,    1.0735, 2,    7699.48, -151.3,    1.0664, 3,    7694.33,   88.1,    1.0657
"BUSMVMAI55", 12.505, 1,    7750.39,  -31.1,    1.0735, 2,    7699.48, -151.3,    1.0664, 3,    7694.33,   88.1,    1.0657
"BUSMVMAI696", 12.505, 1,    7750.18,  -31.1,    1.0734, 2,    7701.21, -151.3,    1.0666, 3,    7695.03,   88.1,    1.0658
"BUSMVMAI24", 12.505, 1,    7750.63,  -31.2,    1.0735, 2,    7697.52, -151.3,    1.0661, 3,    7693.54,   88.0,    1.0656
"BUSMVMAI26", 12.505, 1,    7750.84,  -31.2,    1.0735, 2,    7695.75, -151.3,    1.0659, 3,    7692.83,   88.0,    1.0655
"BUSMVMAI49", 12.505, 1,    7750.61,  -31.2,    1.0735, 2,     7697.7, -151.3,    1.0662, 3,    7693.61,   88.0,    1.0656
"BUSMVMAI50", 12.505, 1,    7750.61,  -31.2,    1.0735, 2,     7697.7, -151.3,    1.0662, 3,    7693.61,   88.0,    1.0656
"BUSMVMAI27", 12.505, 1,    7750.83,  -31.2,    1.0735, 2,    7695.75, -151.3,    1.0659, 3,    7692.82,   88.0,    1.0655
"BUSMVMAI28", 12.505, 1,    7751.01,  -31.2,    1.0735, 2,    7694.38, -151.3,    1.0657, 3,    7692.29,   88.0,    1.0654
"BUSMVMAI29", 12.505, 1,    7750.82,  -31.2,    1.0735, 2,    7695.76, -151.3,    1.0659, 3,    7692.81,   88.0,    1.0655
"BUSMVMAI31", 12.505, 1,    7751.21,  -31.2,    1.0736, 2,     7692.8, -151.3,    1.0655, 3,    7691.67,   88.0,    1.0653
"BUSMVMAI30", 12.505, 1,    7750.81,  -31.2,    1.0735, 2,    7695.77, -151.3,    1.0659, 3,     7692.8,   88.0,    1.0655
"BUSMVMAI34", 12.505, 1,    7750.79,  -31.2,    1.0735, 2,    7695.78, -151.3,    1.0659, 3,     7692.8,   88.0,    1.0655
"BUSMVMAI867", 12.505, 1,    7751.18,  -31.2,    1.0736, 0, 0, 0, 0, 0, 0, 0, 0
"BUSMVMAI43", 12.505, 1,    7751.22,  -31.2,    1.0736, 2,    7692.76, -151.3,    1.0655, 3,    7691.65,   88.0,    1.0653
"BUSMVMAI871", 12.505, 2,     7692.8, -151.3,    1.0655, 0, 0, 0, 0, 0, 0, 0, 0
"BUSMVMAI33", 12.505, 1,    7751.28,  -31.2,    1.0736, 2,    7692.31, -151.3,    1.0654, 3,    7691.48,   88.0,    1.0653
"BUSMVMAI32", 12.505, 1,    7751.47,  -31.2,    1.0736, 2,    7690.95, -151.3,    1.0652, 3,    7690.96,   87.9,    1.0652
"BUSMVMAI37", 12.505, 1,    7751.71,  -31.2,    1.0736, 2,    7689.08, -151.3,     1.065, 3,    7690.27,   87.9,    1.0651
"BUSMVMAI44", 12.505, 1,    7751.22,  -31.2,    1.0736, 2,    7692.72, -151.3,    1.0655, 3,    7691.64,   88.0,    1.0653
"BUSMVMAI35", 12.505, 1,    7750.79,  -31.2,    1.0735, 2,    7695.78, -151.3,    1.0659, 3,    7692.79,   88.0,    1.0655
"BUSMVMAI36", 12.505, 1,    7750.79,  -31.2,    1.0735, 2,    7695.78, -151.3,    1.0659, 3,    7692.78,   88.0,    1.0655
"BUSMVMAI869", 12.505, 1,    7751.18,  -31.2,    1.0736, 0, 0, 0, 0, 0, 0, 0, 0
"BUSMVMAI38", 12.505, 1,    7751.92,  -31.2,    1.0737, 2,     7687.6, -151.4,    1.0648, 3,    7689.73,   87.9,    1.0651
"BUSMVMAI2181", 12.505, 1,    7751.71,  -31.2,    1.0736, 0, 0, 0, 0, 0, 0, 0, 0
"BUSMVMAI868", 12.505, 1,    7751.12,  -31.2,    1.0736, 0, 0, 0, 0, 0, 0, 0, 0
"BUSMVMAI870", 12.505, 1,    7751.05,  -31.2,    1.0736, 0, 0, 0, 0, 0, 0, 0, 0
"BUSMVMAI39", 12.505, 1,    7751.94,  -31.2,    1.0737, 2,    7687.58, -151.4,    1.0648, 3,    7689.67,   87.9,    1.0651
"BUSMVMAI40", 12.505, 1,    7752.06,  -31.2,    1.0737, 2,    7686.16, -151.4,    1.0646, 3,    7689.24,   87.9,     1.065
"BUSMVMAI697", 12.505, 1,    7751.98,  -31.2,    1.0737, 2,     7687.6, -151.4,    1.0648, 3,     7689.5,   87.9,     1.065
"BUSMVMAI41", 12.505, 1,    7752.24,  -31.2,    1.0737, 2,     7684.5, -151.4,    1.0643, 3,    7688.67,   87.9,    1.0649
"BUSMVMAI42", 12.505, 1,    7752.25,  -31.2,    1.0737, 2,     7684.5, -151.4,    1.0643, 3,    7688.65,   87.9,    1.0649
"BUSMVMAI48", 12.505, 1,    7752.38,  -31.2,    1.0737, 2,    7683.13, -151.4,    1.0641, 3,     7688.2,   87.8,    1.0648
"BUSMVMAI303", 12.505, 1,    7752.31,  -31.2,    1.0737, 2,    7683.82, -151.4,    1.0642, 3,    7688.43,   87.9,    1.0649
"BUSMVMAI45", 12.505, 1,    7752.25,  -31.2,    1.0737, 2,     7684.5, -151.4,    1.0643, 3,    7688.65,   87.9,    1.0649
"BUSMVMAI701", 12.505, 1,    7752.25,  -31.2,    1.0737, 2,     7684.5, -151.4,    1.0643, 3,    7688.64,   87.9,    1.0649
"BUSMVMAI47", 12.505, 1,    7750.83,  -31.1,    1.0735, 2,    7714.03, -151.2,    1.0684, 3,    7702.91,   88.3,    1.0669
"BUSMVMAI179", 12.505, 1,    7750.78,  -31.1,    1.0735, 2,    7713.74, -151.2,    1.0684, 3,    7702.65,   88.3,    1.0668
"BUSMVMAI160", 12.505, 1,    7751.07,  -31.1,    1.0736, 2,    7715.45, -151.2,    1.0686, 3,    7704.17,   88.3,    1.0671
"BUSMVMAI1103", 12.505, 1,    7752.33,  -31.2,    1.0737, 0, 0, 0, 0, 0, 0, 0, 0
"BUSMVMAI259", 12.505, 1,    7752.48,  -31.2,    1.0738, 2,    7682.42, -151.4,     1.064, 3,    7687.99,   87.8,    1.0648
"BUSMVMAI304", 12.505, 1,    7752.38,  -31.2,    1.0737, 2,    7683.13, -151.4,    1.0641, 3,     7688.2,   87.8,    1.0648
"BUSMVMAI702", 12.505, 1,    7750.61,  -31.2,    1.0735, 2,     7697.7, -151.3,    1.0662, 3,    7693.61,   88.0,    1.0656
"BUSMVMAI58", 12.505, 1,    7748.51,  -31.1,    1.0732, 2,    7708.92, -151.2,    1.0677, 3,     7697.6,   88.2,    1.0661
"BUSMVMAI57", 12.505, 1,    7747.44,  -31.1,    1.0731, 2,    7708.88, -151.2,    1.0677, 3,    7696.72,   88.2,     1.066
"BUSMVMAI60", 12.505, 1,    7746.98,  -31.1,     1.073, 2,    7708.86, -151.2,    1.0677, 3,    7696.36,   88.2,     1.066
"BUSMVMAI703", 12.505, 1,    7747.44,  -31.1,    1.0731, 2,    7708.88, -151.2,    1.0677, 3,     7696.7,   88.2,     1.066
"BUSMVMAI123", 12.505, 1,    7748.77,  -31.1,    1.0732, 2,    7708.94, -151.2,    1.0677, 3,    7697.81,   88.2,    1.0662
"BUSMVMAI59", 12.505, 1,    7746.33,  -31.2,    1.0729, 2,    7708.87, -151.2,    1.0677, 3,    7695.99,   88.2,    1.0659
"BUSMVMAI61", 12.505, 1,    7745.25,  -31.2,    1.0727, 2,    7708.89, -151.2,    1.0677, 3,    7695.36,   88.2,    1.0658
"BUSMVMAI63", 12.505, 1,    7747.02,  -31.1,     1.073, 2,    7708.84, -151.2,    1.0677, 3,     7696.3,   88.2,     1.066
"BUSMVMAI874", 12.505, 3,    7696.36,   88.2,     1.066, 0, 0, 0, 0, 0, 0, 0, 0
"BUSMVMAI62", 12.505, 1,    7744.16,  -31.2,    1.0726, 2,    7708.87, -151.2,    1.0677, 3,    7694.72,   88.2,    1.0658
"BUSMVMAI64", 12.505, 1,    7742.95,  -31.2,    1.0724, 2,    7708.91, -151.2,    1.0677, 3,    7694.25,   88.2,    1.0657
"BUSMVMAI942", 12.505, 3,    7694.71,   88.2,    1.0657, 0, 0, 0, 0, 0, 0, 0, 0
"BUSMVMAI873", 12.505, 3,    7694.71,   88.2,    1.0657, 0, 0, 0, 0, 0, 0, 0, 0
"BUSMVMAI872", 12.505, 3,    7694.43,   88.2,    1.0657, 0, 0, 0, 0, 0, 0, 0, 0
"BUSMVMAI880", 12.505, 3,    7694.43,   88.2,    1.0657, 0, 0, 0, 0, 0, 0, 0, 0
"BUSMVMAI945", 12.505, 3,    7696.29,   88.2,     1.066, 0, 0, 0, 0, 0, 0, 0, 0
"BUSMVMAI65", 12.505, 1,    7741.67,  -31.2,    1.0723, 2,    7708.91, -151.2,    1.0677, 3,    7693.74,   88.2,    1.0656
"BUSMVMAI66", 12.505, 1,    7740.38,  -31.2,    1.0721, 2,    7708.92, -151.2,    1.0677, 3,    7693.23,   88.2,    1.0655
"BUSMVMAI67", 12.505, 1,    7738.99,  -31.2,    1.0719, 2,    7708.92, -151.2,    1.0677, 3,    7692.67,   88.2,    1.0655
"BUSMVMAI878", 12.505, 1,    7738.91,  -31.2,    1.0719, 0, 0, 0, 0, 0, 0, 0, 0
"BUSMVMAI68", 12.505, 1,    7737.96,  -31.2,    1.0717, 2,    7708.88, -151.2,    1.0677, 3,    7692.27,   88.2,    1.0654
"BUSMVMAI706", 12.505, 1,    7738.99,  -31.2,    1.0719, 2,    7708.92, -151.2,    1.0677, 3,    7692.67,   88.2,    1.0655
"BUSMVMAI876", 12.505, 3,    7696.28,   88.2,     1.066, 0, 0, 0, 0, 0, 0, 0, 0
"BUSMVMAI875", 12.505, 3,    7696.07,   88.2,    1.0659, 0, 0, 0, 0, 0, 0, 0, 0
"BUSMVMAI877", 12.505, 3,       7696,   88.2,    1.0659, 0, 0, 0, 0, 0, 0, 0, 0
"BUSMVMAI883", 12.505, 3,    7695.84,   88.2,    1.0659, 0, 0, 0, 0, 0, 0, 0, 0
"BUSMVMAI884", 12.505, 3,    7695.99,   88.2,    1.0659, 0, 0, 0, 0, 0, 0, 0, 0
"BUSMVMAI886", 12.505, 3,    7695.98,   88.2,    1.0659, 0, 0, 0, 0, 0, 0, 0, 0
"BUSMVMAI885", 12.505, 1,     7738.8,  -31.2,    1.0719, 0, 0, 0, 0, 0, 0, 0, 0
"BUSMVMAI879", 12.505, 3,    7694.05,   88.2,    1.0657, 0, 0, 0, 0, 0, 0, 0, 0
"BUSMVMAI881", 12.505, 3,    7693.99,   88.2,    1.0657, 0, 0, 0, 0, 0, 0, 0, 0
"BUSMVMAI888", 12.505, 3,    7693.99,   88.2,    1.0656, 0, 0, 0, 0, 0, 0, 0, 0
"BUSMVMAI882", 12.505, 3,    7693.95,   88.2,    1.0656, 0, 0, 0, 0, 0, 0, 0, 0
"BUSMVMAI944", 12.505, 3,    7693.94,   88.2,    1.0656, 0, 0, 0, 0, 0, 0, 0, 0
"BUSMVMAI889", 12.505, 3,    7695.71,   88.2,    1.0659, 0, 0, 0, 0, 0, 0, 0, 0
"BUSMVMAI2183", 12.505, 3,    7695.98,   88.2,    1.0659, 0, 0, 0, 0, 0, 0, 0, 0
"BUSMVMAI2184", 12.505, 3,    7695.99,   88.2,    1.0659, 0, 0, 0, 0, 0, 0, 0, 0
"BUSMVMAI71", 12.505, 1,    7736.96,  -31.2,    1.0716, 2,    7708.84, -151.2,    1.0677, 3,    7691.87,   88.2,    1.0654
"BUSMVMAI2182", 12.505, 1,    7738.79,  -31.2,    1.0719, 0, 0, 0, 0, 0, 0, 0, 0
"BUSMVMAI2185", 12.505, 1,    7738.79,  -31.2,    1.0719, 0, 0, 0, 0, 0, 0, 0, 0
"BUSMVMAI2186", 12.505, 1,    7738.73,  -31.2,    1.0718, 0, 0, 0, 0, 0, 0, 0, 0
"BUSMVMAI887", 12.505, 3,    7695.92,   88.2,    1.0659, 0, 0, 0, 0, 0, 0, 0, 0
"BUSMVMAI892", 12.505, 3,    7695.89,   88.2,    1.0659, 0, 0, 0, 0, 0, 0, 0, 0
"BUSMVMAI897", 12.505, 3,    7693.91,   88.2,    1.0656, 0, 0, 0, 0, 0, 0, 0, 0
"BUSMVMAI890", 12.505, 3,     7695.6,   88.2,    1.0659, 0, 0, 0, 0, 0, 0, 0, 0
"BUSMVMAI891", 12.505, 3,    7695.52,   88.2,    1.0659, 0, 0, 0, 0, 0, 0, 0, 0
"BUSMVMAI896", 12.505, 3,    7695.49,   88.2,    1.0659, 0, 0, 0, 0, 0, 0, 0, 0
"BUSMVMAI893", 12.505, 3,    7695.86,   88.2,    1.0659, 0, 0, 0, 0, 0, 0, 0, 0
"BUSMVMAI894", 12.505, 3,    7695.82,   88.2,    1.0659, 0, 0, 0, 0, 0, 0, 0, 0
"BUSMVMAI895", 12.505, 3,    7695.82,   88.2,    1.0659, 0, 0, 0, 0, 0, 0, 0, 0
"BUSMVMAI898", 12.505, 3,    7695.82,   88.2,    1.0659, 0, 0, 0, 0, 0, 0, 0, 0
"BUSMVMAI70", 12.505, 1,    7738.99,  -31.2,    1.0719, 2,    7708.92, -151.2,    1.0677, 3,    7692.63,   88.2,    1.0655
"BUSMVMAI69", 12.505, 1,       7739,  -31.2,    1.0719, 2,    7708.92, -151.2,    1.0677, 3,    7692.63,   88.2,    1.0655
"BUSMVMAI708", 12.505, 1,    7738.99,  -31.2,    1.0719, 2,    7708.92, -151.2,    1.0677, 3,    7692.64,   88.2,    1.0655
"BUSMVMAI72", 12.505, 1,    7735.64,  -31.2,    1.0714, 2,    7708.77, -151.3,    1.0677, 3,    7691.35,   88.2,    1.0653
"BUSMVMAI73", 12.505, 1,    7734.38,  -31.2,    1.0712, 2,    7708.73, -151.3,    1.0677, 3,    7690.92,   88.2,    1.0652
"BUSMVMAI134", 12.505, 1,    7735.64,  -31.2,    1.0714, 2,    7708.77, -151.3,    1.0677, 3,    7691.35,   88.2,    1.0653
"BUSMVMAI900", 12.505, 3,    7693.84,   88.2,    1.0656, 0, 0, 0, 0, 0, 0, 0, 0
"BUSMVMAI904", 12.505, 3,    7695.81,   88.2,    1.0659, 0, 0, 0, 0, 0, 0, 0, 0
"BUSMVMAI75", 12.505, 1,    7733.78,  -31.2,    1.0712, 2,    7708.76, -151.3,    1.0677, 3,    7690.69,   88.2,    1.0652
"BUSMVMAI718", 12.505, 1,    7734.38,  -31.2,    1.0712, 2,    7708.73, -151.3,    1.0677, 3,    7690.92,   88.2,    1.0652
"BUSMVMAI899", 12.505, 3,    7693.84,   88.2,    1.0656, 0, 0, 0, 0, 0, 0, 0, 0
"BUSMVMAI902", 12.505, 3,     7693.8,   88.2,    1.0656, 0, 0, 0, 0, 0, 0, 0, 0
"BUSMVMAI901", 12.505, 3,    7693.77,   88.2,    1.0656, 0, 0, 0, 0, 0, 0, 0, 0
"BUSMVMAI903", 12.505, 3,    7693.72,   88.2,    1.0656, 0, 0, 0, 0, 0, 0, 0, 0
"BUSMVMAI905", 12.505, 3,    7693.66,   88.2,    1.0656, 0, 0, 0, 0, 0, 0, 0, 0
"BUSMVMAI907", 12.505, 3,    7693.71,   88.2,    1.0656, 0, 0, 0, 0, 0, 0, 0, 0
"BUSMVMAI906", 12.505, 3,    7693.65,   88.2,    1.0656, 0, 0, 0, 0, 0, 0, 0, 0
"BUSMVMAI946", 12.505, 3,    7693.65,   88.2,    1.0656, 0, 0, 0, 0, 0, 0, 0, 0
"BUSMVMAI74", 12.505, 1,    7733.78,  -31.2,    1.0712, 2,    7708.76, -151.3,    1.0677, 3,    7690.69,   88.2,    1.0652
"BUSMVMAI76", 12.505, 1,    7733.66,  -31.2,    1.0711, 2,    7708.85, -151.3,    1.0677, 3,    7690.63,   88.2,    1.0652
"BUSMVMAI77", 12.505, 1,    7733.45,  -31.2,    1.0711, 2,    7708.72, -151.3,    1.0677, 3,    7690.57,   88.2,    1.0652
"BUSMVMAI79", 12.505, 1,    7733.65,  -31.2,    1.0711, 2,    7708.85, -151.3,    1.0677, 3,    7690.63,   88.2,    1.0652
"BUSMVMAI81", 12.505, 1,    7733.42,  -31.2,    1.0711, 2,    7708.64, -151.3,    1.0677, 3,     7690.6,   88.2,    1.0652
"BUSMVMAI91", 12.505, 1,     7732.6,  -31.2,     1.071, 2,    7708.68, -151.3,    1.0677, 3,    7690.21,   88.2,    1.0651
"BUSMVMAI78", 12.505, 1,    7733.43,  -31.2,    1.0711, 2,    7709.02, -151.3,    1.0677, 3,    7690.52,   88.2,    1.0652
"BUSMVMAI80", 12.505, 1,     7733.2,  -31.2,    1.0711, 2,    7709.19, -151.3,    1.0678, 3,    7690.41,   88.2,    1.0652
"BUSMVMAI908", 12.505, 1,    7733.06,  -31.2,    1.0711, 0, 0, 0, 0, 0, 0, 0, 0
"BUSMVMAI89", 12.505, 1,    7733.14,  -31.2,    1.0711, 2,    7709.23, -151.3,    1.0678, 3,    7690.37,   88.2,    1.0651
"BUSMVMAI949", 12.505, 3,    7693.71,   88.2,    1.0656, 0, 0, 0, 0, 0, 0, 0, 0
"BUSMVMAI82", 12.505, 1,     7733.4,  -31.2,    1.0711, 2,    7708.58, -151.3,    1.0677, 3,    7690.63,   88.2,    1.0652
"BUSMVMAI83", 12.505, 1,     7733.4,  -31.2,    1.0711, 2,    7708.56, -151.3,    1.0677, 3,    7690.63,   88.2,    1.0652
"BUSMVMAI86", 12.505, 1,     7733.4,  -31.2,    1.0711, 2,    7708.54, -151.3,    1.0677, 3,    7690.63,   88.2,    1.0652
"BUSMVMAI85", 12.505, 1,    7734.35,  -31.2,    1.0712, 2,    7708.63, -151.3,    1.0677, 3,     7690.9,   88.2,    1.0652
"BUSMVMAI84", 12.505, 1,    7734.27,  -31.2,    1.0712, 2,    7708.53, -151.3,    1.0677, 3,    7690.91,   88.2,    1.0652
"BUSMVMAI93", 12.505, 1,    7734.23,  -31.2,    1.0712, 2,    7708.48, -151.3,    1.0677, 3,    7690.91,   88.2,    1.0652
"BUSMVMAI2198", 12.505, 2,    7708.53, -151.3,    1.0677, 0, 0, 0, 0, 0, 0, 0, 0
"BUSMVMAI709", 12.505, 1,    7734.38,  -31.2,    1.0712, 2,    7708.72, -151.3,    1.0677, 3,    7690.92,   88.2,    1.0652
"BUSMVMAI88", 12.505, 1,     7733.4,  -31.2,    1.0711, 2,    7708.52, -151.3,    1.0677, 3,    7690.62,   88.2,    1.0652
"BUSMVMAI87", 12.505, 1,    7733.41,  -31.2,    1.0711, 2,    7708.51, -151.3,    1.0677, 3,    7690.62,   88.2,    1.0652
"BUSMVMAI99", 12.505, 1,     7733.4,  -31.2,    1.0711, 2,    7708.49, -151.3,    1.0677, 3,    7690.63,   88.2,    1.0652
"BUSMVMAI722", 12.505, 1,    7733.41,  -31.2,    1.0711, 2,    7708.51, -151.3,    1.0677, 3,    7690.62,   88.2,    1.0652
"BUSMVMAI909", 12.505, 1,    7732.93,  -31.2,     1.071, 0, 0, 0, 0, 0, 0, 0, 0
"BUSMVMAI90", 12.505, 1,    7733.11,  -31.2,    1.0711, 2,    7709.26, -151.3,    1.0678, 3,    7690.33,   88.2,    1.0651
"BUSMVMAI102", 12.505, 1,    7733.07,  -31.2,    1.0711, 2,    7709.29, -151.3,    1.0678, 3,    7690.29,   88.2,    1.0651
"BUSMVMAI92", 12.505, 1,    7731.86,  -31.2,    1.0709, 2,    7708.65, -151.3,    1.0677, 3,    7689.91,   88.2,    1.0651
"BUSMVMAI132", 12.505, 1,     7732.6,  -31.2,     1.071, 2,    7708.68, -151.3,    1.0677, 3,    7690.21,   88.2,    1.0651
"BUSMVMAI98", 12.505, 1,    7731.86,  -31.2,    1.0709, 2,    7708.65, -151.3,    1.0677, 3,     7689.9,   88.2,    1.0651
"BUSMVMAI100", 12.505, 1,    7730.94,  -31.3,    1.0708, 2,     7708.7, -151.3,    1.0677, 3,    7689.46,   88.2,     1.065
"BUSMVMAI723", 12.505, 1,    7731.86,  -31.2,    1.0709, 2,    7708.64, -151.3,    1.0677, 3,    7689.91,   88.2,    1.0651
"BUSMVMAI96", 12.505, 1,    7734.19,  -31.2,    1.0712, 2,    7708.43, -151.3,    1.0676, 3,    7690.92,   88.2,    1.0652
"BUSMVMAI916", 12.505, 1,    7734.22,  -31.2,    1.0712, 0, 0, 0, 0, 0, 0, 0, 0
"BUSMVMAI95", 12.505, 1,    7731.86,  -31.2,    1.0709, 2,    7708.56, -151.3,    1.0677, 3,    7689.92,   88.2,    1.0651
"BUSMVMAI94", 12.505, 1,    7731.83,  -31.2,    1.0709, 2,    7708.49, -151.3,    1.0677, 3,    7689.96,   88.2,    1.0651
"BUSMVMAI112", 12.505, 1,    7731.83,  -31.2,    1.0709, 2,    7708.49, -151.3,    1.0677, 3,    7689.95,   88.2,    1.0651
"BUSMVMAI126", 12.505, 1,    7731.86,  -31.2,    1.0709, 2,    7708.57, -151.3,    1.0677, 3,    7689.92,   88.2,    1.0651
"BUSMVMAI97", 12.505, 1,    7734.13,  -31.2,    1.0712, 2,    7708.35, -151.3,    1.0676, 3,    7690.93,   88.2,    1.0652
"BUSMVMAI711", 12.505, 1,    7734.19,  -31.2,    1.0712, 2,    7708.43, -151.3,    1.0676, 3,    7690.91,   88.2,    1.0652
"BUSMVMAI915", 12.505, 1,    7734.13,  -31.2,    1.0712, 0, 0, 0, 0, 0, 0, 0, 0
...
"BUSLVMAI1", 0.20785, 1,    127.929,   88.2,    1.0661, 2,    127.945,  -91.8,    1.0662, 0, 0, 0, 0
"BUSLVMAI2", 0.20785, 1,    127.816,   88.0,    1.0651, 2,    127.829,  -92.0,    1.0652, 0, 0, 0, 0
"BUSLVMAI3", 0.20785, 1,    127.906,   88.2,    1.0659, 2,    127.923,  -91.8,     1.066, 0, 0, 0, 0
"BUSLVMAI4", 0.20785, 1,    128.425,  -31.3,    1.0702, 2,    128.497,  148.7,    1.0708, 0, 0, 0, 0
"BUSLVMAI5", 0.20785, 1,    127.489, -151.4,    1.0624, 2,    127.531,   28.6,    1.0628, 0, 0, 0, 0
"BUSLVMAI6", 0.20785, 1,    127.818,   88.0,    1.0652, 2,    127.834,  -92.0,    1.0653, 0, 0, 0, 0
"BUSLVMAI7", 0.20785, 1,    127.934,   88.2,    1.0661, 2,    127.949,  -91.8,    1.0662, 0, 0, 0, 0
"BUSLVMAI8", 0.20785, 1,     127.08,   87.9,     1.059, 2,    127.096,  -92.1,    1.0591, 0, 0, 0, 0
"BUSLVMAI9", 0.20785, 1,    127.227,   87.6,    1.0602, 2,     127.24,  -92.4,    1.0603, 0, 0, 0, 0
"BUSLVMAI10", 0.20785, 1,    127.459,   87.7,    1.0622, 2,    127.472,  -92.3,    1.0623, 0, 0, 0, 0
"BUSLVMAI11", 0.20785, 1,    127.992, -151.3,    1.0666, 2,    128.005,   28.7,    1.0667, 0, 0, 0, 0
"BUSLVMAI12", 0.20785, 1,    127.961, -151.3,    1.0663, 2,    127.976,   28.7,    1.0665, 0, 0, 0, 0
"BUSLVMAI13", 0.20785, 1,    128.743,  -31.1,    1.0729, 2,    128.758,  148.9,     1.073, 0, 0, 0, 0
"BUSLVMAI14", 0.20785, 1,    128.749,  -31.2,    1.0729, 2,    128.765,  148.8,     1.073, 0, 0, 0, 0
"BUSLVMAI15", 0.20785, 1,    128.709,  -31.2,    1.0726, 2,    128.722,  148.8,    1.0727, 0, 0, 0, 0
"BUSLVMAI16", 0.20785, 1,    127.911,   88.2,    1.0659, 2,    127.929,  -91.8,    1.0661, 0, 0, 0, 0
"BUSLVMAI17", 0.20785, 1,    127.295,   87.8,    1.0608, 2,    127.318,  -92.2,     1.061, 0, 0, 0, 0
"BUSLVMAI18", 0.20785, 1,    127.856,   88.1,    1.0655, 2,    127.871,  -91.9,    1.0656, 0, 0, 0, 0
"BUSLVMAI19", 0.20785, 1,    127.845,   88.1,    1.0654, 2,    127.858,  -91.9,    1.0655, 0, 0, 0, 0
"BUSLVMAI20", 0.20785, 1,    127.832, -151.3,    1.0653, 2,    127.865,   28.7,    1.0655, 0, 0, 0, 0
"BUSLVMAI21", 0.20785, 1,     127.93,   88.2,    1.0661, 2,    127.946,  -91.8,    1.0662, 0, 0, 0, 0
"BUSLVMAI22", 0.20785, 1,    128.636,  -31.2,     1.072, 2,    128.712,  148.8,    1.0726, 0, 0, 0, 0
"BUSLVMAI23", 0.20785, 1,    127.902,   88.2,    1.0658, 2,    127.917,  -91.8,     1.066, 0, 0, 0, 0
"BUSLVMAI24", 0.20785, 1,    127.892,   88.2,    1.0658, 2,    127.907,  -91.8,    1.0659, 0, 0, 0, 0
"BUSLVMAI25", 0.20785, 1,    127.867,   88.2,    1.0656, 2,    127.883,  -91.8,    1.0657, 0, 0, 0, 0
"BUSLVMAI26", 0.20785, 1,    127.958, -151.3,    1.0663, 2,    127.973,   28.7,    1.0664, 0, 0, 0, 0
"BUSLVMAI27", 0.20785, 1,    128.033, -151.2,    1.0669, 2,     128.05,   28.8,    1.0671, 0, 0, 0, 0
"BUSLVMAI28", 0.20785, 1,    127.856,   88.1,    1.0655, 2,    127.871,  -91.9,    1.0656, 0, 0, 0, 0
"BUSLVMAI29", 0.20785, 1,    127.635,   87.8,    1.0636, 2,    127.651,  -92.2,    1.0638, 0, 0, 0, 0
"BUSLVMAI30", 0.20785, 1,    127.825, -151.3,    1.0652, 2,    127.839,   28.7,    1.0653, 0, 0, 0, 0
"BUSLVMAI31", 0.20785, 1,    127.909,   88.2,    1.0659, 2,    127.924,  -91.8,     1.066, 0, 0, 0, 0
"BUSLVMAI32", 0.20785, 1,    128.555,  -31.2,    1.0713, 2,    128.568,  148.8,    1.0714, 0, 0, 0, 0
"BUSLVMAI33", 0.20785, 1,     127.84,   88.0,    1.0653, 2,    127.853,  -92.0,    1.0654, 0, 0, 0, 0
"BUSLVMAI34", 0.20785, 1,    126.917,   87.9,    1.0576, 2,    126.953,  -92.1,    1.0579, 0, 0, 0, 0
"BUSLVMAI35", 0.20785, 1,    127.842,   88.2,    1.0654, 2,    127.856,  -91.8,    1.0655, 0, 0, 0, 0
"BUSLVMAI36", 0.20785, 1,     127.84,   88.2,    1.0653, 2,    127.854,  -91.8,    1.0655, 0, 0, 0, 0
"BUSLVMAI37", 0.20785, 1,    127.832,   88.2,    1.0653, 2,    127.848,  -91.9,    1.0654, 0, 0, 0, 0
"BUSLVMAI38", 0.20785, 1,    124.302, -152.1,    1.0358, 2,    124.319,   27.9,     1.036, 0, 0, 0, 0
"BUSLVMAI39", 0.20785, 1,    127.795, -151.4,     1.065, 2,    127.809,   28.6,    1.0651, 0, 0, 0, 0
"BUSLVMAI40", 0.20785, 1,    127.569,   88.0,    1.0631, 2,    127.627,  -92.0,    1.0636, 0, 0, 0, 0
"BUSLVMAI41", 0.20785, 1,    128.493,  -31.2,    1.0708, 2,    128.509,  148.8,    1.0709, 0, 0, 0, 0
"BUSLVMAI42", 0.20785, 1,     128.51,  -31.2,    1.0709, 2,    128.526,  148.8,     1.071, 0, 0, 0, 0
"BUSLVMAI43", 0.20785, 1,    128.525,  -31.2,     1.071, 2,    128.541,  148.8,    1.0712, 0, 0, 0, 0
"BUSLVMAI44", 0.20785, 1,    127.709,   88.2,    1.0642, 2,    127.736,  -91.9,    1.0645, 0, 0, 0, 0
"BUSLVMAI45", 0.20785, 1,    127.637,   88.1,    1.0636, 2,    127.651,  -91.9,    1.0638, 0, 0, 0, 0
"BUSLVMAI46", 0.20785, 1,    127.787,   88.2,    1.0649, 2,    127.803,  -91.8,     1.065, 0, 0, 0, 0
"BUSLVMAI47", 0.20785, 1,    127.845,   88.2,    1.0654, 2,    127.859,  -91.8,    1.0655, 0, 0, 0, 0
"BUSLVMAI48", 0.20785, 1,    127.434,   88.0,     1.062, 2,    127.448,  -92.0,    1.0621, 0, 0, 0, 0
"BUSLVMAI49", 0.20785, 1,    128.507,  -31.2,    1.0709, 2,    128.523,  148.8,     1.071, 0, 0, 0, 0
"BUSLVMAI50", 0.20785, 1,    126.918, -151.6,    1.0577, 2,    127.081,   28.4,     1.059, 0, 0, 0, 0
"BUSLVMAI51", 0.20785, 1,    127.938,  -31.4,    1.0661, 2,    127.954,  148.6,    1.0663, 0, 0, 0, 0
"BUSLVMAI52", 0.20785, 1,    127.854,   88.2,    1.0654, 2,    127.867,  -91.8,    1.0656, 0, 0, 0, 0
"BUSLVMAI53", 0.20785, 1,    127.836,   88.2,    1.0653, 2,    127.852,  -91.8,    1.0654, 0, 0, 0, 0
"BUSLVMAI54", 0.20785, 1,    127.072,   87.9,    1.0589, 2,    127.088,  -92.1,    1.0591, 0, 0, 0, 0
"BUSLVMAI55", 0.20785, 1,    128.549,  -31.2,    1.0712, 2,    128.565,  148.8,    1.0714, 0, 0, 0, 0
"BUSLVMAI56", 0.20785, 1,    127.511,   88.0,    1.0626, 2,    127.524,  -92.0,    1.0627, 0, 0, 0, 0
"BUSLVMAI57", 0.20785, 1,    127.771,   88.2,    1.0648, 2,    127.786,  -91.8,    1.0649, 0, 0, 0, 0
"BUSLVMAI58", 0.20785, 1,    127.852,   88.2,    1.0654, 2,    127.866,  -91.8,    1.0656, 0, 0, 0, 0
"BUSLVMAI59", 0.20785, 1,    128.507,  -31.2,    1.0709, 2,    128.523,  148.8,     1.071, 0, 0, 0, 0
"BUSLVMAI60", 0.20785, 1,    128.483,  -31.3,    1.0707, 2,    128.496,  148.7,    1.0708, 0, 0, 0, 0
"BUSLVMAI61", 0.20785, 1,    128.065,  -31.4,    1.0672, 2,    128.082,  148.6,    1.0673, 0, 0, 0, 0
"BUSLVMAI62", 0.20785, 1,    127.875, -151.4,    1.0656, 2,     127.89,   28.6,    1.0657, 0, 0, 0, 0
"BUSLVMAI63", 0.20785, 1,    128.315,  -31.3,    1.0693, 2,    128.335,  148.7,    1.0695, 0, 0, 0, 0
"BUSLVMAI64", 0.20785, 1,    127.944, -151.3,    1.0662, 2,    127.958,   28.7,    1.0663, 0, 0, 0, 0
"BUSLVMAI65", 0.20785, 1,     128.49,  -31.2,    1.0707, 2,    128.504,  148.8,    1.0709, 0, 0, 0, 0
"BUSLVMAI66", 0.20785, 1,    127.841,   88.2,    1.0653, 2,    127.855,  -91.8,    1.0655, 0, 0, 0, 0
"BUSLVMAI67", 0.20785, 1,     127.96,  -31.4,    1.0663, 2,    127.976,  148.6,    1.0665, 0, 0, 0, 0
"BUSLVMAI68", 0.20785, 1,    128.144,  -31.4,    1.0679, 2,    128.157,  148.6,     1.068, 0, 0, 0, 0
"BUSLVMAI69", 0.20785, 1,    127.845,   88.2,    1.0654, 2,    127.858,  -91.8,    1.0655, 0, 0, 0, 0
"BUSLVMAI70", 0.20785, 1,    127.466,   88.0,    1.0622, 2,    127.488,  -92.0,    1.0624, 0, 0, 0, 0
"BUSLVMAI71", 0.20785, 1,    127.999,  -31.5,    1.0667, 2,    128.014,  148.5,    1.0668, 0, 0, 0, 0
"BUSLVMAI72", 0.20785, 1,    128.413,  -31.3,    1.0701, 2,    128.426,  148.7,    1.0702, 0, 0, 0, 0
"BUSLVMAI73", 0.20785, 1,    128.217,  -31.4,    1.0685, 2,     128.23,  148.6,    1.0686, 0, 0, 0, 0
"BUSLVMAI74", 0.20785, 1,    128.505,  -31.2,    1.0709, 2,    128.521,  148.8,     1.071, 0, 0, 0, 0
"BUSLVMAI75", 0.20785, 1,    127.706, -151.4,    1.0642, 2,     127.72,   28.6,    1.0643, 0, 0, 0, 0
"BUSLVMAI76", 0.20785, 1,    127.841,   88.2,    1.0653, 2,    127.854,  -91.8,    1.0654, 0, 0, 0, 0
"BUSLVMAI77", 0.20785, 1,    128.326,  -31.3,    1.0694, 2,     128.34,  148.7,    1.0695, 0, 0, 0, 0
"BUSLVMAI78", 0.20785, 1,    128.421,  -31.3,    1.0702, 2,    128.434,  148.7,    1.0703, 0, 0, 0, 0
"BUSLVMAI79", 0.20785, 1,    127.777,   88.2,    1.0648, 2,    127.792,  -91.8,    1.0649, 0, 0, 0, 0
"BUSLVMAI80", 0.20785, 1,    127.056,   87.8,    1.0588, 2,    127.078,  -92.2,     1.059, 0, 0, 0, 0
"BUSLVMAI81", 0.20785, 1,     127.84,   88.2,    1.0653, 2,    127.854,  -91.8,    1.0655, 0, 0, 0, 0
"BUSLVMAI82", 0.20785, 1,    127.331,   88.0,    1.0611, 2,    127.347,  -92.0,    1.0612, 0, 0, 0, 0
"BUSLVMAI83", 0.20785, 1,    128.041,  -31.5,     1.067, 2,     128.06,  148.5,    1.0672, 0, 0, 0, 0
"BUSLVMAI84", 0.20785, 1,    127.641,   88.1,    1.0637, 2,    127.655,  -91.9,    1.0638, 0, 0, 0, 0
"BUSLVMAI85", 0.20785, 1,    127.998, -151.3,    1.0667, 2,    128.022,   28.7,    1.0668, 0, 0, 0, 0
"BUSLVMAI86", 0.20785, 1,    128.217,  -31.4,    1.0685, 2,    128.266,  148.6,    1.0689, 0, 0, 0, 0
"BUSLVMAI87", 0.20785, 1,    128.476,  -31.3,    1.0706, 2,     128.51,  148.7,    1.0709, 0, 0, 0, 0
"BUSLVMAI88", 0.20785, 1,    127.877,   88.2,    1.0656, 2,     127.89,  -91.8,    1.0657, 0, 0, 0, 0
"BUSLVMAI89", 0.20785, 1,    127.841,   88.2,    1.0653, 2,    127.854,  -91.8,    1.0654, 0, 0, 0, 0
"BUSLVMAI90", 0.20785, 1,    127.501,   88.1,    1.0625, 2,    127.517,  -92.0,    1.0626, 0, 0, 0, 0
"BUSLVMAI91", 0.20785, 1,    127.854,   88.2,    1.0655, 2,     127.87,  -91.8,    1.0656, 0, 0, 0, 0
"BUSLVMAI92", 0.20785, 1,    128.244,  -31.3,    1.0687, 2,     128.26,  148.6,    1.0688, 0, 0, 0, 0
"BUSLVMAI93", 0.20785, 1,    127.692,   88.2,    1.0641, 2,    127.708,  -91.9,    1.0642, 0, 0, 0, 0
"BUSLVMAI94", 0.20785, 1,    127.435,   88.0,     1.062, 2,    127.449,  -92.0,    1.0621, 0, 0, 0, 0
"BUSLVMAI95", 0.20785, 1,    127.771,   88.2,    1.0648, 2,    127.786,  -91.8,    1.0649, 0, 0, 0, 0
"BUSLVMAI96", 0.20785, 1,    127.793,   88.1,    1.0649, 2,    127.807,  -91.9,    1.0651, 0, 0, 0, 0
"BUSLVMAI97", 0.20785, 1,     128.08, -151.3,    1.0673, 2,    128.096,   28.7,    1.0675, 0, 0, 0, 0
"BUSLVMAI98", 0.20785, 1,     128.08, -151.3,    1.0673, 2,    128.096,   28.7,    1.0675, 0, 0, 0, 0
"BUSLVMAI99", 0.20785, 1,    127.798,   88.1,     1.065, 2,    127.812,  -91.9,    1.0651, 0, 0, 0, 0
"BUSLVMAI100", 0.20785, 1,    127.826,   88.1,    1.0652, 2,    127.841,  -91.9,    1.0653, 0, 0, 0, 0
"BUSLVMAI101", 0.20785, 1,    127.768,   88.2,    1.0647, 2,    127.785,  -91.8,    1.0649, 0, 0, 0, 0
"BUSLVMAI102", 0.20785, 1,    127.838,   88.2,    1.0653, 2,    127.854,  -91.8,    1.0655, 0, 0, 0, 0
"BUSLVMAI103", 0.20785, 1,    127.741,   88.2,    1.0645, 2,    127.756,  -91.8,    1.0646, 0, 0, 0, 0
"BUSLVMAI104", 0.20785, 1,    127.747,   88.2,    1.0646, 2,    127.761,  -91.8,    1.0647, 0, 0, 0, 0
"BUSLVMAI105", 0.20785, 1,     127.64,   88.1,    1.0637, 2,    127.654,  -91.9,    1.0638, 0, 0, 0, 0
"BUSLVMAI106", 0.20785, 1,    128.475,  -31.2,    1.0706, 2,    128.488,  148.8,    1.0707, 0, 0, 0, 0
"BUSLVMAI107", 0.20785, 1,    127.844,   88.2,    1.0654, 2,    127.858,  -91.8,    1.0655, 0, 0, 0, 0
"BUSLVMAI108", 0.20785, 1,    127.782,   88.2,    1.0649, 2,    127.796,  -91.8,     1.065, 0, 0, 0, 0
"BUSLVMAI109", 0.20785, 1,     127.83,  -31.5,    1.0653, 2,    127.882,  148.5,    1.0657, 0, 0, 0, 0
"BUSLVMAI110", 0.20785, 1,    128.136,  -31.4,    1.0678, 2,    128.152,  148.6,    1.0679, 0, 0, 0, 0
"BUSLVMAI111", 0.20785, 1,    128.283,  -31.3,     1.069, 2,    128.299,  148.7,    1.0692, 0, 0, 0, 0
"BUSLVMAI112", 0.20785, 1,    128.401,  -31.3,      1.07, 2,    128.417,  148.7,    1.0701, 0, 0, 0, 0
"BUSLVMAI113", 0.20785, 1,     128.03, -151.3,    1.0669, 2,    128.046,   28.7,     1.067, 0, 0, 0, 0
"BUSLVMAI114", 0.20785, 1,     127.66,  -31.5,    1.0638, 2,    127.675,  148.4,     1.064, 0, 0, 0, 0
"BUSLVMAI115", 0.20785, 1,    128.285,  -31.3,     1.069, 2,    128.298,  148.7,    1.0692, 0, 0, 0, 0
"BUSLVMAI116", 0.20785, 1,    127.739,   88.2,    1.0645, 2,    127.752,  -91.8,    1.0646, 0, 0, 0, 0
"BUSLVMAI117", 0.20785, 1,    127.849,  -31.5,    1.0654, 2,    127.869,  148.4,    1.0656, 0, 0, 0, 0
"BUSLVMAI118", 0.20785, 1,    128.175,  -31.4,    1.0681, 2,    128.191,  148.6,    1.0683, 0, 0, 0, 0
"BUSLVMAI119", 0.20785, 1,    127.536,   88.1,    1.0628, 2,    127.549,  -91.9,    1.0629, 0, 0, 0, 0
"BUSLVMAI120", 0.20785, 1,    128.284,  -31.3,     1.069, 2,    128.298,  148.7,    1.0692, 0, 0, 0, 0
"BUSLVMAI121", 0.20785, 1,    128.107, -151.3,    1.0676, 2,    128.123,   28.7,    1.0677, 0, 0, 0, 0
"BUSLVMAI122", 0.20785, 1,    127.724,   88.2,    1.0644, 2,     127.74,  -91.8,    1.0645, 0, 0, 0, 0
"BUSLVMAI123", 0.20785, 1,    128.109, -151.3,    1.0676, 2,    128.123,   28.7,    1.0677, 0, 0, 0, 0
"BUSLVMAI124", 0.20785, 1,      127.1,   87.9,    1.0592, 2,    127.159,  -92.1,    1.0597, 0, 0, 0, 0
"BUSLVMAI125", 0.20785, 1,    127.433,   88.1,    1.0619, 2,     127.45,  -91.9,    1.0621, 0, 0, 0, 0
"BUSLVMAI126", 0.20785, 1,    128.114, -151.3,    1.0676, 2,    128.128,   28.7,    1.0677, 0, 0, 0, 0
"BUSLVMAI127", 0.20785, 1,    127.729,   88.2,    1.0644, 2,    127.743,  -91.8,    1.0645, 0, 0, 0, 0
"BUSLVMAI128", 0.20785, 1,     127.45, -151.5,    1.0621, 2,    127.468,   28.4,    1.0622, 0, 0, 0, 0
"BUSLVMAI129", 0.20785, 1,    128.285,  -31.3,     1.069, 2,    128.298,  148.7,    1.0691, 0, 0, 0, 0
"BUSLVMAI130", 0.20785, 1,    128.432,  -31.3,    1.0703, 2,    128.448,  148.7,    1.0704, 0, 0, 0, 0
"BUSLVMAI131", 0.20785, 1,    127.732,  -31.5,    1.0644, 2,    127.753,  148.5,    1.0646, 0, 0, 0, 0
"BUSLVMAI132", 0.20785, 1,    128.282,  -31.3,     1.069, 2,    128.296,  148.7,    1.0691, 0, 0, 0, 0
"BUSLVMAI133", 0.20785, 1,    127.746,   88.2,    1.0645, 2,    127.764,  -91.8,    1.0647, 0, 0, 0, 0
"BUSLVMAI134", 0.20785, 1,    127.553,   88.1,    1.0629, 2,    127.568,  -91.9,    1.0631, 0, 0, 0, 0
"BUSLVMAI135", 0.20785, 1,    127.712,   88.2,    1.0643, 2,    127.728,  -91.9,    1.0644, 0, 0, 0, 0
"BUSLVMAI136", 0.20785, 1,      127.8,  -31.6,     1.065, 2,    127.826,  148.4,    1.0652, 0, 0, 0, 0
"BUSLVMAI137", 0.20785, 1,    127.824, -151.4,    1.0652, 2,    127.837,   28.6,    1.0653, 0, 0, 0, 0
"BUSLVMAI138", 0.20785, 1,    127.929, -151.4,    1.0661, 2,     127.95,   28.6,    1.0662, 0, 0, 0, 0
"BUSLVMAI139", 0.20785, 1,    127.766, -151.4,    1.0647, 2,    127.782,   28.6,    1.0649, 0, 0, 0, 0
"BUSLVMAI140", 0.20785, 1,     128.02,  -31.4,    1.0668, 2,    128.036,  148.6,     1.067, 0, 0, 0, 0
"BUSLVMAI141", 0.20785, 1,    128.114, -151.3,    1.0676, 2,    128.129,   28.7,    1.0677, 0, 0, 0, 0
"BUSLVMAI142", 0.20785, 1,     127.81, -151.4,    1.0651, 2,    127.824,   28.6,    1.0652, 0, 0, 0, 0
"BUSLVMAI143", 0.20785, 1,    128.024, -151.3,    1.0669, 2,    128.039,   28.7,     1.067, 0, 0, 0, 0
"BUSLVMAI144", 0.20785, 1,    127.727,   88.2,    1.0644, 2,    127.743,  -91.8,    1.0645, 0, 0, 0, 0
"BUSLVMAI145", 0.20785, 1,      128.4,  -31.3,      1.07, 2,    128.416,  148.7,    1.0701, 0, 0, 0, 0
"BUSLVMAI146", 0.20785, 1,    128.102, -151.3,    1.0675, 2,    128.116,   28.7,    1.0676, 0, 0, 0, 0
"BUSLVMAI147", 0.20785, 1,    127.854,  -31.5,    1.0654, 2,    127.869,  148.5,    1.0656, 0, 0, 0, 0
"BUSLVMAI148", 0.20785, 1,    127.696,   88.2,    1.0641, 2,    127.712,  -91.8,    1.0643, 0, 0, 0, 0
"BUSLVMAI149", 0.20785, 1,    127.786, -151.4,    1.0649, 2,    127.799,   28.6,     1.065, 0, 0, 0, 0
"BUSLVMAI150", 0.20785, 1,    127.943,  -31.5,    1.0662, 2,    127.968,  148.5,    1.0664, 0, 0, 0, 0
"BUSLVMAI151", 0.20785, 1,    127.757, -151.4,    1.0646, 2,     127.77,   28.6,    1.0647, 0, 0, 0, 0
"BUSLVMAI152", 0.20785, 1,    128.275,  -31.3,     1.069, 2,     128.29,  148.7,    1.0691, 0, 0, 0, 0
"BUSLVMAI153", 0.20785, 1,    126.979,   87.9,    1.0582, 2,    126.995,  -92.1,    1.0583, 0, 0, 0, 0
"BUSLVMAI154", 0.20785, 1,    127.739,   88.2,    1.0645, 2,    127.755,  -91.8,    1.0646, 0, 0, 0, 0
"BUSLVMAI155", 0.20785, 1,     127.96,  -31.5,    1.0663, 2,    127.974,  148.5,    1.0664, 0, 0, 0, 0
"BUSLVMAI156", 0.20785, 1,    128.289,  -31.3,    1.0691, 2,    128.302,  148.7,    1.0692, 0, 0, 0, 0
"BUSLVMAI157", 0.20785, 1,    127.816,  -31.5,    1.0651, 2,    127.832,  148.5,    1.0653, 0, 0, 0, 0
"BUSLVMAI158", 0.20785, 1,    128.054, -151.3,    1.0671, 2,    128.067,   28.7,    1.0672, 0, 0, 0, 0
"BUSLVMAI159", 0.20785, 1,    128.048, -151.3,    1.0671, 2,    128.061,   28.7,    1.0672, 0, 0, 0, 0
"BUSLVMAI160", 0.20785, 1,    128.214,  -31.3,    1.0685, 2,    128.232,  148.7,    1.0686, 0, 0, 0, 0
"BUSLVMAI161", 0.20785, 1,    128.045,  -31.4,     1.067, 2,    128.068,  148.6,    1.0672, 0, 0, 0, 0
"BUSLVMAI162", 0.20785, 1,    128.115,  -31.4,    1.0676, 2,    128.131,  148.6,    1.0678, 0, 0, 0, 0
"BUSLVMAI163", 0.20785, 1,    128.274,  -31.3,     1.069, 2,     128.29,  148.7,    1.0691, 0, 0, 0, 0
"BUSLVMAI164", 0.20785, 1,    128.455,  -31.3,    1.0705, 2,    128.468,  148.7,    1.0706, 0, 0, 0, 0
"BUSLVMAI165", 0.20785, 1,    127.889,  -31.4,    1.0657, 2,    127.922,  148.5,     1.066, 0, 0, 0, 0
"BUSLVMAI166", 0.20785, 1,    128.121,  -31.4,    1.0677, 2,    128.145,  148.6,    1.0679, 0, 0, 0, 0
"BUSLVMAI167", 0.20785, 1,    127.494,   88.1,    1.0624, 2,     127.52,  -92.0,    1.0627, 0, 0, 0, 0
"BUSLVMAI168", 0.20785, 1,    127.552,   88.1,    1.0629, 2,    127.567,  -91.9,    1.0631, 0, 0, 0, 0
"BUSLVMAI169", 0.20785, 1,    127.062,  -31.6,    1.0588, 2,    127.079,  148.4,     1.059, 0, 0, 0, 0
"BUSLVMAI170", 0.20785, 1,    128.279,  -31.3,     1.069, 2,    128.293,  148.7,    1.0691, 0, 0, 0, 0
"BUSLVMAI171", 0.20785, 1,    127.954,  -31.4,    1.0663, 2,     128.04,  148.6,     1.067, 0, 0, 0, 0
"BUSLVMAI172", 0.20785, 1,    127.386,   88.0,    1.0615, 2,      127.4,  -92.0,    1.0617, 0, 0, 0, 0
"BUSLVMAI173", 0.20785, 1,    127.723,   88.2,    1.0644, 2,    127.739,  -91.8,    1.0645, 0, 0, 0, 0
"BUSLVMAI174", 0.20785, 1,    128.018,  -31.4,    1.0668, 2,     128.04,  148.6,     1.067, 0, 0, 0, 0
"BUSLVMAI175", 0.20785, 1,    127.787,  -31.6,    1.0649, 2,    127.801,  148.4,     1.065, 0, 0, 0, 0
"BUSLVMAI176", 0.20785, 1,    127.639,   88.1,    1.0637, 2,    127.653,  -91.9,    1.0638, 0, 0, 0, 0
"BUSLVMAI177", 0.20785, 1,    127.714,   88.2,    1.0643, 2,    127.728,  -91.8,    1.0644, 0, 0, 0, 0
"BUSLVMAI178", 0.20785, 1,    128.047, -151.3,    1.0671, 2,     128.06,   28.7,    1.0672, 0, 0, 0, 0
"BUSLVMAI179", 0.20785, 1,    127.836, -151.4,    1.0653, 2,    127.849,   28.6,    1.0654, 0, 0, 0, 0
"BUSLVMAI180", 0.20785, 1,    128.288,  -31.3,    1.0691, 2,    128.301,  148.7,    1.0692, 0, 0, 0, 0
"BUSLVMAI181", 0.20785, 1,    128.277,  -31.3,     1.069, 2,    128.292,  148.7,    1.0691, 0, 0, 0, 0
"BUSLVMAI182", 0.20785, 1,    127.444,  -31.7,     1.062, 2,    127.473,  148.3,    1.0623, 0, 0, 0, 0
"BUSLVMAI183", 0.20785, 1,    127.596,   88.1,    1.0633, 2,     127.61,  -91.9,    1.0634, 0, 0, 0, 0
"BUSLVMAI184", 0.20785, 1,    128.431,  -31.3,    1.0703, 2,    128.444,  148.7,    1.0704, 0, 0, 0, 0
"BUSLVMAI185", 0.20785, 1,    127.687, -151.4,    1.0641, 2,      127.7,   28.6,    1.0642, 0, 0, 0, 0
"BUSLVMAI186", 0.20785, 1,    127.743,   88.2,    1.0645, 2,    127.758,  -91.8,    1.0647, 0, 0, 0, 0
"BUSLVMAI187", 0.20785, 1,    127.531,   88.1,    1.0628, 2,    127.544,  -91.9,    1.0629, 0, 0, 0, 0
"BUSLVMAI188", 0.20785, 1,     128.06, -151.3,    1.0672, 2,    128.076,   28.7,    1.0673, 0, 0, 0, 0
"BUSLVMAI189", 0.20785, 1,    128.283,  -31.3,     1.069, 2,      128.3,  148.7,    1.0692, 0, 0, 0, 0
"BUSLVMAI190", 0.20785, 1,    128.051, -151.3,    1.0671, 2,    128.068,   28.7,    1.0672, 0, 0, 0, 0
"BUSLVMAI191", 0.20785, 1,    127.739,   88.2,    1.0645, 2,    127.755,  -91.8,    1.0646, 0, 0, 0, 0
"BUSLVMAI192", 0.20785, 1,    128.272,  -31.3,    1.0689, 2,    128.289,  148.7,    1.0691, 0, 0, 0, 0
"BUSLVMAI193", 0.20785, 1,    128.279,  -31.3,     1.069, 2,    128.295,  148.7,    1.0691, 0, 0, 0, 0
"BUSLVMAI194", 0.20785, 1,    127.708,   88.2,    1.0642, 2,    127.724,  -91.8,    1.0644, 0, 0, 0, 0
"BUSLVMAI195", 0.20785, 1,    127.741,   88.2,    1.0645, 2,    127.757,  -91.8,    1.0646, 0, 0, 0, 0
"BUSLVMAI196", 0.20785, 1,    128.028, -151.3,    1.0669, 2,    128.044,   28.7,     1.067, 0, 0, 0, 0
"BUSLVMAI197", 0.20785, 1,    127.795, -151.4,     1.065, 2,    127.809,   28.6,    1.0651, 0, 0, 0, 0
"BUSLVMAI198", 0.20785, 1,    128.028, -151.3,    1.0669, 2,    128.044,   28.7,     1.067, 0, 0, 0, 0
"BUSLVMAI199", 0.20785, 1,    128.029, -151.3,    1.0669, 2,    128.044,   28.7,     1.067, 0, 0, 0, 0
"BUSLVMAI200", 0.20785, 1,    128.271,  -31.3,    1.0689, 2,    128.287,  148.7,    1.0691, 0, 0, 0, 0
...
